taxonomy_feeders/R3-35.00-1.glm
//*********************************************
// $Id: R3-35.00-1.glm 1132 2008-11-18 22:36:10Z dchassin $ 
//*********************************************

clock { 
	 timezone MST+7MDT;
	 timestamp '2000-01-01 0:00:00';
}

//*********************************************
// modules
module powerflow;


object triplex_line_conductor: {
	name 1/0 AA triplex;
	resistance 0.97;
	geometric_mean_radius 0.0111;
}

object triplex_line_configuration:1 {
	conductor_1 1/0 AA triplex;
	conductor_2 1/0 AA triplex;
	conductor_N 1/0 AA triplex;
	insulation_thickness 0.08;
	diameter 0.368;
}

object transformer:214  {
	phases "BS";
	from 587_73455;
	to 587_73455_AB_M;
	configuration transformer_configuration:133;
}

object triplex_meter:215 {
	name 587_73455_AB_M;
	phases "BS";
	nominal_voltage 120;
	voltage_1 -60.000-103.923j;
	voltage_2 -60.000-103.923j;
	voltage_N 0;
}

object triplex_node:216 {
	name 587_73455_AB_TX;
	parent 587_73455_AB_M;
	phases BS;
	nominal_voltage 120;
	latitude 50N7'2.615";
	longitude 121W23'19.759";
	power_1 4.8288584915624+5.12146987452025j;
	voltage_1 -60.000-103.923j;
	voltage_2 -60.000-103.923j;
	voltage_N 0;
}

object transformer:217  {
	phases "AS";
	from 83_607415;
	to 83_607415_AA_M;
	configuration transformer_configuration:118;
}

object triplex_meter:218 {
	name 83_607415_AA_M;
	phases "AS";
	nominal_voltage 120;
	voltage_1 120;
	voltage_2 120;
	voltage_N 0;
}

object triplex_node:219 {
	name 83_607415_AA_TX;
	parent 83_607415_AA_M;
	phases AS;
	nominal_voltage 120;
	latitude 50N7'5.424";
	longitude 121W23'41.145";
	power_1 8.22114498244995+8.66751629700788j;
	voltage_1 120;
	voltage_2 120;
	voltage_N 0;
}

object transformer:220  {
	phases "AS";
	from 587_73739;
	to 587_73739_AA_M;
	configuration transformer_configuration:119;
}

object triplex_meter:221 {
	name 587_73739_AA_M;
	phases "AS";
	nominal_voltage 120;
	voltage_1 120;
	voltage_2 120;
	voltage_N 0;
}

object triplex_node:222 {
	name 587_73739_AA_TX;
	parent 587_73739_AA_M;
	phases AS;
	nominal_voltage 120;
	latitude 50N8'52.127";
	longitude 121W23'16.620";
	power_1 4.93268698946997+5.20050977820472j;
	voltage_1 120;
	voltage_2 120;
	voltage_N 0;
}

object transformer:223  {
	phases "CS";
	from 587_73739;
	to 587_73739_AC_M;
	configuration transformer_configuration:149;
}

object triplex_meter:224 {
	name 587_73739_AC_M;
	phases "CS";
	nominal_voltage 120;
	voltage_1 -60.000+103.923j;
	voltage_2 -60.000+103.923j;
	voltage_N 0;
}

object triplex_node:225 {
	name 587_73739_AC_TX;
	parent 587_73739_AC_M;
	phases AS;
	nominal_voltage 120;
	latitude 50N8'52.127";
	longitude 121W23'16.620";
	power_1 0+0j;
	voltage_1 -60.000+103.923j;
	voltage_2 -60.000+103.923j;
	voltage_N 0;
}

object transformer:226  {
	phases "AS";
	from 82_371292_BOMT411007;
	to 82_371292_BOMT411007_AA_M;
	configuration transformer_configuration:120;
}

object triplex_meter:227 {
	name 82_371292_BOMT411007_AA_M;
	phases "AS";
	nominal_voltage 120;
	voltage_1 120;
	voltage_2 120;
	voltage_N 0;
}

object triplex_node:228 {
	name 82_371292_BOMT411007_AA_TX;
	parent 82_371292_BOMT411007_AA_M;
	phases AS;
	nominal_voltage 120;
	latitude 50N11'19.636";
	longitude 121W30'28.686";
	power_1 8.22114498244995+8.66751629700788j;
	voltage_1 120;
	voltage_2 120;
	voltage_N 0;
}

object transformer:229  {
	phases "AS";
	from 587_60404;
	to 587_60404_RA_M;
	configuration transformer_configuration:118;
}

object triplex_meter:230 {
	name 587_60404_RA_M;
	phases "AS";
	nominal_voltage 120;
	voltage_1 120;
	voltage_2 120;
	voltage_N 0;
}

object triplex_node:231 {
	name 587_60404_RA_TX;
	parent 587_60404_RA_M;
	phases AS;
	nominal_voltage 120;
	latitude 50N10'44.737";
	longitude 121W29'6.439";
	power_1 8.22114498244995+8.66751629700788j;
	voltage_1 120;
	voltage_2 120;
	voltage_N 0;
}

object transformer:232  {
	phases "BS";
	from 587_60404;
	to 587_60404_RB_M;
	configuration transformer_configuration:134;
}

object triplex_meter:233 {
	name 587_60404_RB_M;
	phases "BS";
	nominal_voltage 120;
	voltage_1 -60.000-103.923j;
	voltage_2 -60.000-103.923j;
	voltage_N 0;
}

object triplex_node:234 {
	name 587_60404_RB_TX;
	parent 587_60404_RB_M;
	phases BS;
	nominal_voltage 120;
	latitude 50N10'44.737";
	longitude 121W29'6.439";
	power_1 8.04809748593734+8.53578312420042j;
	voltage_1 -60.000-103.923j;
	voltage_2 -60.000-103.923j;
	voltage_N 0;
}

object transformer:235  {
	phases "CS";
	from 587_60404;
	to 587_60404_RC_M;
	configuration transformer_configuration:148;
}

object triplex_meter:236 {
	name 587_60404_RC_M;
	phases "CS";
	nominal_voltage 120;
	voltage_1 -60.000+103.923j;
	voltage_2 -60.000+103.923j;
	voltage_N 0;
}

object triplex_node:237 {
	name 587_60404_RC_TX;
	parent 587_60404_RC_M;
	phases CS;
	nominal_voltage 120;
	latitude 50N10'44.737";
	longitude 121W29'6.439";
	power_1 22.3348470212101+23.6811308510734j;
	voltage_1 -60.000+103.923j;
	voltage_2 -60.000+103.923j;
	voltage_N 0;
}

object transformer:238  {
	phases "AS";
	from 83_926801;
	to 83_926801_AA_M;
	configuration transformer_configuration:118;
}

object triplex_meter:239 {
	name 83_926801_AA_M;
	phases "AS";
	nominal_voltage 120;
	voltage_1 120;
	voltage_2 120;
	voltage_N 0;
}

object triplex_node:240 {
	name 83_926801_AA_TX;
	parent 83_926801_AA_M;
	phases AS;
	nominal_voltage 120;
	latitude 50N8'48.491";
	longitude 121W23'17.851";
	power_1 8.22114498244995+8.66751629700788j;
	voltage_1 120;
	voltage_2 120;
	voltage_N 0;
}

object transformer:241  {
	phases "BS";
	from 83_674601;
	to 83_674601_RB_M;
	configuration transformer_configuration:135;
}

object triplex_meter:242 {
	name 83_674601_RB_M;
	phases "BS";
	nominal_voltage 120;
	voltage_1 -60.000-103.923j;
	voltage_2 -60.000-103.923j;
	voltage_N 0;
}

object triplex_node:243 {
	name 83_674601_RB_TX;
	parent 83_674601_RB_M;
	phases BS;
	nominal_voltage 120;
	latitude 50N10'40.338";
	longitude 121W29'47.075";
	power_1 12.8769559774997+13.6572529987207j;
	voltage_1 -60.000-103.923j;
	voltage_2 -60.000-103.923j;
	voltage_N 0;
}

object transformer:244  {
	phases "AS";
	from 83_225278;
	to 83_225278_AA_M;
	configuration transformer_configuration:119;
}

object triplex_meter:245 {
	name 83_225278_AA_M;
	phases "AS";
	nominal_voltage 120;
	voltage_1 120;
	voltage_2 120;
	voltage_N 0;
}

object triplex_node:246 {
	name 83_225278_AA_TX;
	parent 83_225278_AA_M;
	phases AS;
	nominal_voltage 120;
	latitude 50N8'24.561";
	longitude 121W22'38.391";
	power_1 4.93268698946997+5.20050977820472j;
	voltage_1 120;
	voltage_2 120;
	voltage_N 0;
}

object transformer:247  {
	phases "A|B|C|N";
	from 83_228975;
	to 83_228975_A_M;
	configuration transformer_configuration:168;
}

object meter:248 {
	name 83_228975_A_M;
	phases "ABCN";
	nominal_voltage 19918.584;
	voltage_A 19918.584+0.0j;
	voltage_B -9959.292-17250.000j;
	voltage_C -9959.292+17250.000j;
}
object transformer:249  {
	phases "BS";
	from 587_60368;
	to 587_60368_RB_M;
	configuration transformer_configuration:133;
}

object triplex_meter:250 {
	name 587_60368_RB_M;
	phases "BS";
	nominal_voltage 120;
	voltage_1 -60.000-103.923j;
	voltage_2 -60.000-103.923j;
	voltage_N 0;
}

object triplex_node:251 {
	name 587_60368_RB_TX;
	parent 587_60368_RB_M;
	phases BS;
	nominal_voltage 120;
	latitude 50N10'31.264";
	longitude 121W29'47.214";
	power_1 4.8288584915624+5.12146987452025j;
	voltage_1 -60.000-103.923j;
	voltage_2 -60.000-103.923j;
	voltage_N 0;
}

object transformer:252  {
	phases "AS";
	from 83_225371;
	to 83_225371_AA_M;
	configuration transformer_configuration:119;
}

object triplex_meter:253 {
	name 83_225371_AA_M;
	phases "AS";
	nominal_voltage 120;
	voltage_1 120;
	voltage_2 120;
	voltage_N 0;
}

object triplex_node:254 {
	name 83_225371_AA_TX;
	parent 83_225371_AA_M;
	phases AS;
	nominal_voltage 120;
	latitude 50N8'17.257";
	longitude 121W22'48.833";
	power_1 4.93268698946997+5.20050977820472j;
	voltage_1 120;
	voltage_2 120;
	voltage_N 0;
}

object transformer:255  {
	phases "BS";
	from 76_297369;
	to 76_297369_RB_M;
	configuration transformer_configuration:134;
}

object triplex_meter:256 {
	name 76_297369_RB_M;
	phases "BS";
	nominal_voltage 120;
	voltage_1 -60.000-103.923j;
	voltage_2 -60.000-103.923j;
	voltage_N 0;
}

object triplex_node:257 {
	name 76_297369_RB_TX;
	parent 76_297369_RB_M;
	phases BS;
	nominal_voltage 120;
	latitude 50N10'27.438";
	longitude 121W29'46.074";
	power_1 8.04809748593734+8.53578312420042j;
	voltage_1 -60.000-103.923j;
	voltage_2 -60.000-103.923j;
	voltage_N 0;
}

object transformer:258  {
	phases "BS";
	from 76_40971;
	to 76_40971_RB_M;
	configuration transformer_configuration:133;
}

object triplex_meter:259 {
	name 76_40971_RB_M;
	phases "BS";
	nominal_voltage 120;
	voltage_1 -60.000-103.923j;
	voltage_2 -60.000-103.923j;
	voltage_N 0;
}

object triplex_node:260 {
	name 76_40971_RB_TX;
	parent 76_40971_RB_M;
	phases BS;
	nominal_voltage 120;
	latitude 50N10'31.383";
	longitude 121W29'50.852";
	power_1 4.8288584915624+5.12146987452025j;
	voltage_1 -60.000-103.923j;
	voltage_2 -60.000-103.923j;
	voltage_N 0;
}

object transformer:261  {
	phases "AS";
	from 83_225372;
	to 83_225372_AA_M;
	configuration transformer_configuration:119;
}

object triplex_meter:262 {
	name 83_225372_AA_M;
	phases "AS";
	nominal_voltage 120;
	voltage_1 120;
	voltage_2 120;
	voltage_N 0;
}

object triplex_node:263 {
	name 83_225372_AA_TX;
	parent 83_225372_AA_M;
	phases AS;
	nominal_voltage 120;
	latitude 50N8'26.341";
	longitude 121W22'47.457";
	power_1 4.93268698946997+5.20050977820472j;
	voltage_1 120;
	voltage_2 120;
	voltage_N 0;
}

object transformer:264  {
	phases "A|B|C|N";
	from 83_228483;
	to 83_228483_A_M;
	configuration transformer_configuration:169;
}

object meter:265 {
	name 83_228483_A_M;
	phases "ABCN";
	nominal_voltage 19918.584;
	voltage_A 19918.584+0.0j;
	voltage_B -9959.292-17250.000j;
	voltage_C -9959.292+17250.000j;
}
object transformer:266  {
	phases "BS";
	from 587_73621;
	to 587_73621_AB_M;
	configuration transformer_configuration:136;
}

object triplex_meter:267 {
	name 587_73621_AB_M;
	phases "BS";
	nominal_voltage 120;
	voltage_1 -60.000-103.923j;
	voltage_2 -60.000-103.923j;
	voltage_N 0;
}

object triplex_node:268 {
	name 587_73621_AB_TX;
	parent 587_73621_AB_M;
	phases BS;
	nominal_voltage 120;
	latitude 50N8'21.051";
	longitude 121W21'59.727";
	power_1 9.65771698312481+10.2429397490405j;
	voltage_1 -60.000-103.923j;
	voltage_2 -60.000-103.923j;
	voltage_N 0;
}

object transformer:269  {
	phases "AS";
	from 80_19160;
	to 80_19160_AA_M;
	configuration transformer_configuration:118;
}

object triplex_meter:270 {
	name 80_19160_AA_M;
	phases "AS";
	nominal_voltage 120;
	voltage_1 120;
	voltage_2 120;
	voltage_N 0;
}

object triplex_node:271 {
	name 80_19160_AA_TX;
	parent 80_19160_AA_M;
	phases AS;
	nominal_voltage 120;
	latitude 50N7'4.239";
	longitude 121W26'2.045";
	power_1 8.22114498244995+8.66751629700788j;
	voltage_1 120;
	voltage_2 120;
	voltage_N 0;
}

object transformer:272  {
	phases "CS";
	from 80_19160;
	to 80_19160_AC_M;
	configuration transformer_configuration:148;
}

object triplex_meter:273 {
	name 80_19160_AC_M;
	phases "CS";
	nominal_voltage 120;
	voltage_1 -60.000+103.923j;
	voltage_2 -60.000+103.923j;
	voltage_N 0;
}

object triplex_node:274 {
	name 80_19160_AC_TX;
	parent 80_19160_AC_M;
	phases AS;
	nominal_voltage 120;
	latitude 50N7'4.239";
	longitude 121W26'2.045";
	power_1 0+0j;
	voltage_1 -60.000+103.923j;
	voltage_2 -60.000+103.923j;
	voltage_N 0;
}

object transformer:275  {
	phases "A|B|C|N";
	from 83_228469;
	to 83_228469_A_M;
	configuration transformer_configuration:171;
}

object meter:276 {
	name 83_228469_A_M;
	phases "ABCN";
	nominal_voltage 19918.584;
	voltage_A 19918.584+0.0j;
	voltage_B -9959.292-17250.000j;
	voltage_C -9959.292+17250.000j;
}
object transformer:277  {
	phases "BS";
	from 83_228470;
	to 83_228470_AB_M;
	configuration transformer_configuration:136;
}

object triplex_meter:278 {
	name 83_228470_AB_M;
	phases "BS";
	nominal_voltage 120;
	voltage_1 -60.000-103.923j;
	voltage_2 -60.000-103.923j;
	voltage_N 0;
}

object triplex_node:279 {
	name 83_228470_AB_TX;
	parent 83_228470_AB_M;
	phases BS;
	nominal_voltage 120;
	latitude 50N6'49.935";
	longitude 121W25'22.607";
	power_1 9.65771698312481+10.2429397490405j;
	voltage_1 -60.000-103.923j;
	voltage_2 -60.000-103.923j;
	voltage_N 0;
}

object transformer:280  {
	phases "AS";
	from 83_225277;
	to 83_225277_AA_M;
	configuration transformer_configuration:121;
}

object triplex_meter:281 {
	name 83_225277_AA_M;
	phases "AS";
	nominal_voltage 120;
	voltage_1 120;
	voltage_2 120;
	voltage_N 0;
}

object triplex_node:282 {
	name 83_225277_AA_TX;
	parent 83_225277_AA_M;
	phases AS;
	nominal_voltage 120;
	latitude 50N8'35.598";
	longitude 121W22'37.076";
	power_1 9.86537397893994+10.4010195564094j;
	voltage_1 120;
	voltage_2 120;
	voltage_N 0;
}

object transformer:283  {
	phases "BS";
	from 83_228484;
	to 83_228484_AB_M;
	configuration transformer_configuration:135;
}

object triplex_meter:284 {
	name 83_228484_AB_M;
	phases "BS";
	nominal_voltage 120;
	voltage_1 -60.000-103.923j;
	voltage_2 -60.000-103.923j;
	voltage_N 0;
}

object triplex_node:285 {
	name 83_228484_AB_TX;
	parent 83_228484_AB_M;
	phases BS;
	nominal_voltage 120;
	latitude 50N7'47.797";
	longitude 121W23'57.213";
	power_1 16.0961949718747+17.0715662484008j;
	voltage_1 -60.000-103.923j;
	voltage_2 -60.000-103.923j;
	voltage_N 0;
}

object transformer:286  {
	phases "AS";
	from 587_73534;
	to 587_73534_AA_M;
	configuration transformer_configuration:118;
}

object triplex_meter:287 {
	name 587_73534_AA_M;
	phases "AS";
	nominal_voltage 120;
	voltage_1 120;
	voltage_2 120;
	voltage_N 0;
}

object triplex_node:288 {
	name 587_73534_AA_TX;
	parent 587_73534_AA_M;
	phases AS;
	nominal_voltage 120;
	latitude 50N7'43.169";
	longitude 121W23'18.984";
	power_1 8.22114498244995+8.66751629700788j;
	voltage_1 120;
	voltage_2 120;
	voltage_N 0;
}

object transformer:289  {
	phases "CS";
	from 587_73534;
	to 587_73534_AC_M;
	configuration transformer_configuration:148;
}

object triplex_meter:290 {
	name 587_73534_AC_M;
	phases "CS";
	nominal_voltage 120;
	voltage_1 -60.000+103.923j;
	voltage_2 -60.000+103.923j;
	voltage_N 0;
}

object triplex_node:291 {
	name 587_73534_AC_TX;
	parent 587_73534_AC_M;
	phases AS;
	nominal_voltage 120;
	latitude 50N7'43.169";
	longitude 121W23'18.984";
	power_1 4.78603864740218+5.07452803951572j;
	voltage_1 -60.000+103.923j;
	voltage_2 -60.000+103.923j;
	voltage_N 0;
}

object transformer:292  {
	phases "BS";
	from 83_225283;
	to 83_225283_AB_M;
	configuration transformer_configuration:133;
}

object triplex_meter:293 {
	name 83_225283_AB_M;
	phases "BS";
	nominal_voltage 120;
	voltage_1 -60.000-103.923j;
	voltage_2 -60.000-103.923j;
	voltage_N 0;
}

object triplex_node:294 {
	name 83_225283_AB_TX;
	parent 83_225283_AB_M;
	phases BS;
	nominal_voltage 120;
	latitude 50N8'18.403";
	longitude 121W21'55.938";
	power_1 4.8288584915624+5.12146987452025j;
	voltage_1 -60.000-103.923j;
	voltage_2 -60.000-103.923j;
	voltage_N 0;
}

object transformer:295  {
	phases "A|B|C|N";
	from 83_230030;
	to 83_230030_A_M;
	configuration transformer_configuration:175;
}

object meter:296 {
	name 83_230030_A_M;
	phases "ABCN";
	nominal_voltage 19918.584;
	voltage_A 19918.584+0.0j;
	voltage_B -9959.292-17250.000j;
	voltage_C -9959.292+17250.000j;
}
object transformer:297  {
	phases "A|B|C|N";
	from 587_59911;
	to 587_59911_A_M;
	configuration transformer_configuration:176;
}

object meter:298 {
	name 587_59911_A_M;
	phases "ABCN";
	nominal_voltage 19918.584;
	voltage_A 19918.584+0.0j;
	voltage_B -9959.292-17250.000j;
	voltage_C -9959.292+17250.000j;
}
object transformer:299  {
	phases "A|B|C|N";
	from 83_438755;
	to 83_438755_A_M;
	configuration transformer_configuration:177;
}

object meter:300 {
	name 83_438755_A_M;
	phases "ABCN";
	nominal_voltage 19918.584;
	voltage_A 19918.584+0.0j;
	voltage_B -9959.292-17250.000j;
	voltage_C -9959.292+17250.000j;
}
object transformer:301  {
	phases "BS";
	from 83_228566;
	to 83_228566_AB_M;
	configuration transformer_configuration:133;
}

object triplex_meter:302 {
	name 83_228566_AB_M;
	phases "BS";
	nominal_voltage 120;
	voltage_1 -60.000-103.923j;
	voltage_2 -60.000-103.923j;
	voltage_N 0;
}

object triplex_node:303 {
	name 83_228566_AB_TX;
	parent 83_228566_AB_M;
	phases BS;
	nominal_voltage 120;
	latitude 50N8'57.865";
	longitude 121W23'17.840";
	power_1 4.8288584915624+5.12146987452025j;
	voltage_1 -60.000-103.923j;
	voltage_2 -60.000-103.923j;
	voltage_N 0;
}

object transformer:304  {
	phases "AS";
	from 83_830863;
	to 83_830863_AA_M;
	configuration transformer_configuration:123;
}

object triplex_meter:305 {
	name 83_830863_AA_M;
	phases "AS";
	nominal_voltage 120;
	voltage_1 120;
	voltage_2 120;
	voltage_N 0;
}

object triplex_node:306 {
	name 83_830863_AA_TX;
	parent 83_830863_AA_M;
	phases AS;
	nominal_voltage 120;
	latitude 50N8'15.348";
	longitude 121W22'32.126";
	power_1 37.8172669192698+39.8705749662362j;
	voltage_1 120;
	voltage_2 120;
	voltage_N 0;
}

object transformer:307  {
	phases "AS";
	from 587_391399;
	to 587_391399_AA_M;
	configuration transformer_configuration:121;
}

object triplex_meter:308 {
	name 587_391399_AA_M;
	phases "AS";
	nominal_voltage 120;
	voltage_1 120;
	voltage_2 120;
	voltage_N 0;
}

object triplex_node:309 {
	name 587_391399_AA_TX;
	parent 587_391399_AA_M;
	phases AS;
	nominal_voltage 120;
	latitude 50N8'24.320";
	longitude 121W22'6.654";
	power_1 9.86537397893994+10.4010195564094j;
	voltage_1 120;
	voltage_2 120;
	voltage_N 0;
}

object transformer:310  {
	phases "BS";
	from 83_228476;
	to 83_228476_AB_M;
	configuration transformer_configuration:134;
}

object triplex_meter:311 {
	name 83_228476_AB_M;
	phases "BS";
	nominal_voltage 120;
	voltage_1 -60.000-103.923j;
	voltage_2 -60.000-103.923j;
	voltage_N 0;
}

object triplex_node:312 {
	name 83_228476_AB_TX;
	parent 83_228476_AB_M;
	phases BS;
	nominal_voltage 120;
	latitude 50N7'50.668";
	longitude 121W24'7.035";
	power_1 8.04809748593734+8.53578312420042j;
	voltage_1 -60.000-103.923j;
	voltage_2 -60.000-103.923j;
	voltage_N 0;
}

object transformer:313  {
	phases "BS";
	from 587_66100;
	to 587_66100_AB_M;
	configuration transformer_configuration:138;
}

object triplex_meter:314 {
	name 587_66100_AB_M;
	phases "BS";
	nominal_voltage 120;
	voltage_1 -60.000-103.923j;
	voltage_2 -60.000-103.923j;
	voltage_N 0;
}

object triplex_node:315 {
	name 587_66100_AB_TX;
	parent 587_66100_AB_M;
	phases BS;
	nominal_voltage 120;
	latitude 50N7'57.834";
	longitude 121W24'27.491";
	power_1 3.21923899437494+3.41431324968017j;
	voltage_1 -60.000-103.923j;
	voltage_2 -60.000-103.923j;
	voltage_N 0;
}

object transformer:316  {
	phases "BS";
	from 83_228446;
	to 83_228446_AB_M;
	configuration transformer_configuration:136;
}

object triplex_meter:317 {
	name 83_228446_AB_M;
	phases "BS";
	nominal_voltage 120;
	voltage_1 -60.000-103.923j;
	voltage_2 -60.000-103.923j;
	voltage_N 0;
}

object triplex_node:318 {
	name 83_228446_AB_TX;
	parent 83_228446_AB_M;
	phases BS;
	nominal_voltage 120;
	latitude 50N8'15.380";
	longitude 121W23'57.272";
	power_1 9.65771698312481+10.2429397490405j;
	voltage_1 -60.000-103.923j;
	voltage_2 -60.000-103.923j;
	voltage_N 0;
}

object transformer:319  {
	phases "AS";
	from 587_65948;
	to 587_65948_AA_M;
	configuration transformer_configuration:124;
}

object triplex_meter:320 {
	name 587_65948_AA_M;
	phases "AS";
	nominal_voltage 120;
	voltage_1 120;
	voltage_2 120;
	voltage_N 0;
}

object triplex_node:321 {
	name 587_65948_AA_TX;
	parent 587_65948_AA_M;
	phases AS;
	nominal_voltage 120;
	latitude 50N7'2.866";
	longitude 121W24'3.289";
	power_1 3.28845799297998+3.46700651880315j;
	voltage_1 120;
	voltage_2 120;
	voltage_N 0;
}

object transformer:322  {
	phases "CS";
	from 587_65948;
	to 587_65948_AC_M;
	configuration transformer_configuration:154;
}

object triplex_meter:323 {
	name 587_65948_AC_M;
	phases "CS";
	nominal_voltage 120;
	voltage_1 -60.000+103.923j;
	voltage_2 -60.000+103.923j;
	voltage_N 0;
}

object triplex_node:324 {
	name 587_65948_AC_TX;
	parent 587_65948_AC_M;
	phases AS;
	nominal_voltage 120;
	latitude 50N7'2.866";
	longitude 121W24'3.289";
	power_1 0+0j;
	voltage_1 -60.000+103.923j;
	voltage_2 -60.000+103.923j;
	voltage_N 0;
}

object transformer:325  {
	phases "BS";
	from 587_73552;
	to 587_73552_AB_M;
	configuration transformer_configuration:135;
}

object triplex_meter:326 {
	name 587_73552_AB_M;
	phases "BS";
	nominal_voltage 120;
	voltage_1 -60.000-103.923j;
	voltage_2 -60.000-103.923j;
	voltage_N 0;
}

object triplex_node:327 {
	name 587_73552_AB_TX;
	parent 587_73552_AB_M;
	phases BS;
	nominal_voltage 120;
	latitude 50N7'55.869";
	longitude 121W21'8.488";
	power_1 12.8769559774997+13.6572529987207j;
	voltage_1 -60.000-103.923j;
	voltage_2 -60.000-103.923j;
	voltage_N 0;
}

object transformer:328  {
	phases "BS";
	from 83_225291;
	to 83_225291_AB_M;
	configuration transformer_configuration:134;
}

object triplex_meter:329 {
	name 83_225291_AB_M;
	phases "BS";
	nominal_voltage 120;
	voltage_1 -60.000-103.923j;
	voltage_2 -60.000-103.923j;
	voltage_N 0;
}

object triplex_node:330 {
	name 83_225291_AB_TX;
	parent 83_225291_AB_M;
	phases BS;
	nominal_voltage 120;
	latitude 50N7'54.835";
	longitude 121W21'8.585";
	power_1 8.04809748593734+8.53578312420042j;
	voltage_1 -60.000-103.923j;
	voltage_2 -60.000-103.923j;
	voltage_N 0;
}

object transformer:331  {
	phases "BS";
	from 587_73485;
	to 587_73485_AB_M;
	configuration transformer_configuration:133;
}

object triplex_meter:332 {
	name 587_73485_AB_M;
	phases "BS";
	nominal_voltage 120;
	voltage_1 -60.000-103.923j;
	voltage_2 -60.000-103.923j;
	voltage_N 0;
}

object triplex_node:333 {
	name 587_73485_AB_TX;
	parent 587_73485_AB_M;
	phases BS;
	nominal_voltage 120;
	latitude 50N7'28.818";
	longitude 121W22'0.263";
	power_1 4.8288584915624+5.12146987452025j;
	voltage_1 -60.000-103.923j;
	voltage_2 -60.000-103.923j;
	voltage_N 0;
}

object transformer:334  {
	phases "BS";
	from 83_225293;
	to 83_225293_AB_M;
	configuration transformer_configuration:133;
}

object triplex_meter:335 {
	name 83_225293_AB_M;
	phases "BS";
	nominal_voltage 120;
	voltage_1 -60.000-103.923j;
	voltage_2 -60.000-103.923j;
	voltage_N 0;
}

object triplex_node:336 {
	name 83_225293_AB_TX;
	parent 83_225293_AB_M;
	phases BS;
	nominal_voltage 120;
	latitude 50N7'42.050";
	longitude 121W21'51.134";
	power_1 4.8288584915624+5.12146987452025j;
	voltage_1 -60.000-103.923j;
	voltage_2 -60.000-103.923j;
	voltage_N 0;
}

object transformer:337  {
	phases "BS";
	from 83_225282;
	to 83_225282_AB_M;
	configuration transformer_configuration:134;
}

object triplex_meter:338 {
	name 83_225282_AB_M;
	phases "BS";
	nominal_voltage 120;
	voltage_1 -60.000-103.923j;
	voltage_2 -60.000-103.923j;
	voltage_N 0;
}

object triplex_node:339 {
	name 83_225282_AB_TX;
	parent 83_225282_AB_M;
	phases BS;
	nominal_voltage 120;
	latitude 50N8'23.971";
	longitude 121W21'53.066";
	power_1 8.04809748593734+8.53578312420042j;
	voltage_1 -60.000-103.923j;
	voltage_2 -60.000-103.923j;
	voltage_N 0;
}

object transformer:340  {
	phases "BS";
	from 83_225285;
	to 83_225285_AB_M;
	configuration transformer_configuration:133;
}

object triplex_meter:341 {
	name 83_225285_AB_M;
	phases "BS";
	nominal_voltage 120;
	voltage_1 -60.000-103.923j;
	voltage_2 -60.000-103.923j;
	voltage_N 0;
}

object triplex_node:342 {
	name 83_225285_AB_TX;
	parent 83_225285_AB_M;
	phases BS;
	nominal_voltage 120;
	latitude 50N8'24.321";
	longitude 121W22'6.445";
	power_1 4.8288584915624+5.12146987452025j;
	voltage_1 -60.000-103.923j;
	voltage_2 -60.000-103.923j;
	voltage_N 0;
}

object transformer:343  {
	phases "BS";
	from 83_228533;
	to 83_228533_AB_M;
	configuration transformer_configuration:134;
}

object triplex_meter:344 {
	name 83_228533_AB_M;
	phases "BS";
	nominal_voltage 120;
	voltage_1 -60.000-103.923j;
	voltage_2 -60.000-103.923j;
	voltage_N 0;
}

object triplex_node:345 {
	name 83_228533_AB_TX;
	parent 83_228533_AB_M;
	phases BS;
	nominal_voltage 120;
	latitude 50N9'3.386";
	longitude 121W23'16.285";
	power_1 8.04809748593734+8.53578312420042j;
	voltage_1 -60.000-103.923j;
	voltage_2 -60.000-103.923j;
	voltage_N 0;
}

object transformer:346  {
	phases "A|B|C|N";
	from 587_66043;
	to 587_66043_A_M;
	configuration transformer_configuration:182;
}

object meter:347 {
	name 587_66043_A_M;
	phases "ABCN";
	nominal_voltage 19918.584;
	voltage_A 19918.584+0.0j;
	voltage_B -9959.292-17250.000j;
	voltage_C -9959.292+17250.000j;
}
object transformer:348  {
	phases "A|B|C|N";
	from 76_40992;
	to 76_40992_A_M;
	configuration transformer_configuration:176;
}

object meter:349 {
	name 76_40992_A_M;
	phases "ABCN";
	nominal_voltage 19918.584;
	voltage_A 19918.584+0.0j;
	voltage_B -9959.292-17250.000j;
	voltage_C -9959.292+17250.000j;
}
object transformer:350  {
	phases "BS";
	from 83_432705;
	to 83_432705_RB_M;
	configuration transformer_configuration:134;
}

object triplex_meter:351 {
	name 83_432705_RB_M;
	phases "BS";
	nominal_voltage 120;
	voltage_1 -60.000-103.923j;
	voltage_2 -60.000-103.923j;
	voltage_N 0;
}

object triplex_node:352 {
	name 83_432705_RB_TX;
	parent 83_432705_RB_M;
	phases BS;
	nominal_voltage 120;
	latitude 50N7'55.907";
	longitude 121W20'59.346";
	power_1 8.04809748593734+8.53578312420042j;
	voltage_1 -60.000-103.923j;
	voltage_2 -60.000-103.923j;
	voltage_N 0;
}

object transformer:353  {
	phases "BS";
	from 83_432706;
	to 83_432706_RB_M;
	configuration transformer_configuration:133;
}

object triplex_meter:354 {
	name 83_432706_RB_M;
	phases "BS";
	nominal_voltage 120;
	voltage_1 -60.000-103.923j;
	voltage_2 -60.000-103.923j;
	voltage_N 0;
}

object triplex_node:355 {
	name 83_432706_RB_TX;
	parent 83_432706_RB_M;
	phases BS;
	nominal_voltage 120;
	latitude 50N7'59.818";
	longitude 121W20'59.930";
	power_1 4.8288584915624+5.12146987452025j;
	voltage_1 -60.000-103.923j;
	voltage_2 -60.000-103.923j;
	voltage_N 0;
}

object transformer:356  {
	phases "BS";
	from 83_225290;
	to 83_225290_RB_M;
	configuration transformer_configuration:134;
}

object triplex_meter:357 {
	name 83_225290_RB_M;
	phases "BS";
	nominal_voltage 120;
	voltage_1 -60.000-103.923j;
	voltage_2 -60.000-103.923j;
	voltage_N 0;
}

object triplex_node:358 {
	name 83_225290_RB_TX;
	parent 83_225290_RB_M;
	phases BS;
	nominal_voltage 120;
	latitude 50N7'54.713";
	longitude 121W21'3.287";
	power_1 8.04809748593734+8.53578312420042j;
	voltage_1 -60.000-103.923j;
	voltage_2 -60.000-103.923j;
	voltage_N 0;
}

object transformer:359  {
	phases "BS";
	from 83_225298;
	to 83_225298_AB_M;
	configuration transformer_configuration:135;
}

object triplex_meter:360 {
	name 83_225298_AB_M;
	phases "BS";
	nominal_voltage 120;
	voltage_1 -60.000-103.923j;
	voltage_2 -60.000-103.923j;
	voltage_N 0;
}

object triplex_node:361 {
	name 83_225298_AB_TX;
	parent 83_225298_AB_M;
	phases BS;
	nominal_voltage 120;
	latitude 50N7'13.649";
	longitude 121W22'0.644";
	power_1 16.0961949718747+17.0715662484008j;
	voltage_1 -60.000-103.923j;
	voltage_2 -60.000-103.923j;
	voltage_N 0;
}

object transformer:362  {
	phases "BS";
	from 83_225296;
	to 83_225296_AB_M;
	configuration transformer_configuration:136;
}

object triplex_meter:363 {
	name 83_225296_AB_M;
	phases "BS";
	nominal_voltage 120;
	voltage_1 -60.000-103.923j;
	voltage_2 -60.000-103.923j;
	voltage_N 0;
}

object triplex_node:364 {
	name 83_225296_AB_TX;
	parent 83_225296_AB_M;
	phases BS;
	nominal_voltage 120;
	latitude 50N7'28.767";
	longitude 121W22'6.052";
	power_1 9.65771698312481+10.2429397490405j;
	voltage_1 -60.000-103.923j;
	voltage_2 -60.000-103.923j;
	voltage_N 0;
}

object transformer:365  {
	phases "BS";
	from 83_432709;
	to 83_432709_AB_M;
	configuration transformer_configuration:133;
}

object triplex_meter:366 {
	name 83_432709_AB_M;
	phases "BS";
	nominal_voltage 120;
	voltage_1 -60.000-103.923j;
	voltage_2 -60.000-103.923j;
	voltage_N 0;
}

object triplex_node:367 {
	name 83_432709_AB_TX;
	parent 83_432709_AB_M;
	phases BS;
	nominal_voltage 120;
	latitude 50N8'32.161";
	longitude 121W21'59.452";
	power_1 4.8288584915624+5.12146987452025j;
	voltage_1 -60.000-103.923j;
	voltage_2 -60.000-103.923j;
	voltage_N 0;
}

object transformer:368  {
	phases "BS";
	from 83_225281;
	to 83_225281_AB_M;
	configuration transformer_configuration:133;
}

object triplex_meter:369 {
	name 83_225281_AB_M;
	phases "BS";
	nominal_voltage 120;
	voltage_1 -60.000-103.923j;
	voltage_2 -60.000-103.923j;
	voltage_N 0;
}

object triplex_node:370 {
	name 83_225281_AB_TX;
	parent 83_225281_AB_M;
	phases BS;
	nominal_voltage 120;
	latitude 50N8'29.005";
	longitude 121W21'54.943";
	power_1 4.8288584915624+5.12146987452025j;
	voltage_1 -60.000-103.923j;
	voltage_2 -60.000-103.923j;
	voltage_N 0;
}

object transformer:371  {
	phases "AS";
	from 83_227865;
	to 83_227865_AA_M;
	configuration transformer_configuration:119;
}

object triplex_meter:372 {
	name 83_227865_AA_M;
	phases "AS";
	nominal_voltage 120;
	voltage_1 120;
	voltage_2 120;
	voltage_N 0;
}

object triplex_node:373 {
	name 83_227865_AA_TX;
	parent 83_227865_AA_M;
	phases AS;
	nominal_voltage 120;
	latitude 50N7'17.547";
	longitude 121W26'33.953";
	power_1 4.93268698946997+5.20050977820472j;
	voltage_1 120;
	voltage_2 120;
	voltage_N 0;
}

object transformer:374  {
	phases "A|B|C|N";
	from 587_65941;
	to 587_65941_A_M;
	configuration transformer_configuration:169;
}

object meter:375 {
	name 587_65941_A_M;
	phases "ABCN";
	nominal_voltage 19918.584;
	voltage_A 19918.584+0.0j;
	voltage_B -9959.292-17250.000j;
	voltage_C -9959.292+17250.000j;
}
object transformer:376  {
	phases "A|B|C|N";
	from 83_227862;
	to 83_227862_A_M;
	configuration transformer_configuration:183;
}

object meter:377 {
	name 83_227862_A_M;
	phases "ABCN";
	nominal_voltage 19918.584;
	voltage_A 19918.584+0.0j;
	voltage_B -9959.292-17250.000j;
	voltage_C -9959.292+17250.000j;
}
object transformer:378  {
	phases "BS";
	from 83_228535;
	to 83_228535_RB_M;
	configuration transformer_configuration:133;
}

object triplex_meter:379 {
	name 83_228535_RB_M;
	phases "BS";
	nominal_voltage 120;
	voltage_1 -60.000-103.923j;
	voltage_2 -60.000-103.923j;
	voltage_N 0;
}

object triplex_node:380 {
	name 83_228535_RB_TX;
	parent 83_228535_RB_M;
	phases BS;
	nominal_voltage 120;
	latitude 50N9'4.820";
	longitude 121W23'27.750";
	power_1 4.8288584915624+5.12146987452025j;
	voltage_1 -60.000-103.923j;
	voltage_2 -60.000-103.923j;
	voltage_N 0;
}

object transformer:381  {
	phases "BS";
	from 83_354924;
	to 83_354924_RB_M;
	configuration transformer_configuration:134;
}

object triplex_meter:382 {
	name 83_354924_RB_M;
	phases "BS";
	nominal_voltage 120;
	voltage_1 -60.000-103.923j;
	voltage_2 -60.000-103.923j;
	voltage_N 0;
}

object triplex_node:383 {
	name 83_354924_RB_TX;
	parent 83_354924_RB_M;
	phases BS;
	nominal_voltage 120;
	latitude 50N8'59.296";
	longitude 121W23'29.433";
	power_1 8.04809748593734+8.53578312420042j;
	voltage_1 -60.000-103.923j;
	voltage_2 -60.000-103.923j;
	voltage_N 0;
}

object transformer:384  {
	phases "BS";
	from 83_387895;
	to 83_387895_RB_M;
	configuration transformer_configuration:133;
}

object triplex_meter:385 {
	name 83_387895_RB_M;
	phases "BS";
	nominal_voltage 120;
	voltage_1 -60.000-103.923j;
	voltage_2 -60.000-103.923j;
	voltage_N 0;
}

object triplex_node:386 {
	name 83_387895_RB_TX;
	parent 83_387895_RB_M;
	phases BS;
	nominal_voltage 120;
	latitude 50N9'1.523";
	longitude 121W23'23.779";
	power_1 4.8288584915624+5.12146987452025j;
	voltage_1 -60.000-103.923j;
	voltage_2 -60.000-103.923j;
	voltage_N 0;
}

object transformer:387  {
	phases "A|B|C|N";
	from 587_66117;
	to 587_66117_A_M;
	configuration transformer_configuration:169;
}

object meter:388 {
	name 587_66117_A_M;
	phases "ABCN";
	nominal_voltage 19918.584;
	voltage_A 19918.584+0.0j;
	voltage_B -9959.292-17250.000j;
	voltage_C -9959.292+17250.000j;
}
object transformer:389  {
	phases "BS";
	from 83_228448;
	to 83_228448_AB_M;
	configuration transformer_configuration:134;
}

object triplex_meter:390 {
	name 83_228448_AB_M;
	phases "BS";
	nominal_voltage 120;
	voltage_1 -60.000-103.923j;
	voltage_2 -60.000-103.923j;
	voltage_N 0;
}

object triplex_node:391 {
	name 83_228448_AB_TX;
	parent 83_228448_AB_M;
	phases BS;
	nominal_voltage 120;
	latitude 50N7'44.637";
	longitude 121W24'24.640";
	power_1 8.04809748593734+8.53578312420042j;
	voltage_1 -60.000-103.923j;
	voltage_2 -60.000-103.923j;
	voltage_N 0;
}

object transformer:392  {
	phases "A|B|C|N";
	from 83_227866;
	to 83_227866_A_M;
	configuration transformer_configuration:176;
}

object meter:393 {
	name 83_227866_A_M;
	phases "ABCN";
	nominal_voltage 19918.584;
	voltage_A 19918.584+0.0j;
	voltage_B -9959.292-17250.000j;
	voltage_C -9959.292+17250.000j;
}
object transformer:394  {
	phases "A|B|C|N";
	from 587_59861;
	to 587_59861_A_M;
	configuration transformer_configuration:182;
}

object meter:395 {
	name 587_59861_A_M;
	phases "ABCN";
	nominal_voltage 19918.584;
	voltage_A 19918.584+0.0j;
	voltage_B -9959.292-17250.000j;
	voltage_C -9959.292+17250.000j;
}
object transformer:396  {
	phases "BS";
	from 83_227939;
	to 83_227939_RB_M;
	configuration transformer_configuration:134;
}

object triplex_meter:397 {
	name 83_227939_RB_M;
	phases "BS";
	nominal_voltage 120;
	voltage_1 -60.000-103.923j;
	voltage_2 -60.000-103.923j;
	voltage_N 0;
}

object triplex_node:398 {
	name 83_227939_RB_TX;
	parent 83_227939_RB_M;
	phases BS;
	nominal_voltage 120;
	latitude 50N7'29.820";
	longitude 121W26'12.710";
	power_1 8.04809748593734+8.53578312420042j;
	voltage_1 -60.000-103.923j;
	voltage_2 -60.000-103.923j;
	voltage_N 0;
}

object transformer:399  {
	phases "AS";
	from 83_227940;
	to 83_227940_RA_M;
	configuration transformer_configuration:126;
}

object triplex_meter:400 {
	name 83_227940_RA_M;
	phases "AS";
	nominal_voltage 120;
	voltage_1 120;
	voltage_2 120;
	voltage_N 0;
}

object triplex_node:401 {
	name 83_227940_RA_TX;
	parent 83_227940_RA_M;
	phases AS;
	nominal_voltage 120;
	latitude 50N7'31.839";
	longitude 121W26'43.643";
	power_1 21.3749769543699+22.5355423722205j;
	voltage_1 120;
	voltage_2 120;
	voltage_N 0;
}

object transformer:402  {
	phases "BS";
	from 83_227940;
	to 83_227940_RB_M;
	configuration transformer_configuration:137;
}

object triplex_meter:403 {
	name 83_227940_RB_M;
	phases "BS";
	nominal_voltage 120;
	voltage_1 -60.000-103.923j;
	voltage_2 -60.000-103.923j;
	voltage_N 0;
}

object triplex_node:404 {
	name 83_227940_RB_TX;
	parent 83_227940_RB_M;
	phases BS;
	nominal_voltage 120;
	latitude 50N7'31.839";
	longitude 121W26'43.643";
	power_1 20.9250534634371+22.1930361229211j;
	voltage_1 -60.000-103.923j;
	voltage_2 -60.000-103.923j;
	voltage_N 0;
}

object transformer:405  {
	phases "CS";
	from 83_227940;
	to 83_227940_RC_M;
	configuration transformer_configuration:156;
}

object triplex_meter:406 {
	name 83_227940_RC_M;
	phases "CS";
	nominal_voltage 120;
	voltage_1 -60.000+103.923j;
	voltage_2 -60.000+103.923j;
	voltage_N 0;
}

object triplex_node:407 {
	name 83_227940_RC_TX;
	parent 83_227940_RC_M;
	phases CS;
	nominal_voltage 120;
	latitude 50N7'31.839";
	longitude 121W26'43.643";
	power_1 20.7395008054094+21.9896215045681j;
	voltage_1 -60.000+103.923j;
	voltage_2 -60.000+103.923j;
	voltage_N 0;
}

object transformer:408  {
	phases "BS";
	from 587_66007;
	to 587_66007_RB_M;
	configuration transformer_configuration:133;
}

object triplex_meter:409 {
	name 587_66007_RB_M;
	phases "BS";
	nominal_voltage 120;
	voltage_1 -60.000-103.923j;
	voltage_2 -60.000-103.923j;
	voltage_N 0;
}

object triplex_node:410 {
	name 587_66007_RB_TX;
	parent 587_66007_RB_M;
	phases BS;
	nominal_voltage 120;
	latitude 50N7'31.115";
	longitude 121W25'36.570";
	power_1 4.8288584915624+5.12146987452025j;
	voltage_1 -60.000-103.923j;
	voltage_2 -60.000-103.923j;
	voltage_N 0;
}

object transformer:411  {
	phases "BS";
	from 83_230305;
	to 83_230305_AB_M;
	configuration transformer_configuration:133;
}

object triplex_meter:412 {
	name 83_230305_AB_M;
	phases "BS";
	nominal_voltage 120;
	voltage_1 -60.000-103.923j;
	voltage_2 -60.000-103.923j;
	voltage_N 0;
}

object triplex_node:413 {
	name 83_230305_AB_TX;
	parent 83_230305_AB_M;
	phases BS;
	nominal_voltage 120;
	latitude 50N9'9.345";
	longitude 121W23'16.090";
	power_1 4.8288584915624+5.12146987452025j;
	voltage_1 -60.000-103.923j;
	voltage_2 -60.000-103.923j;
	voltage_N 0;
}

object transformer:414  {
	phases "BS";
	from 83_228534;
	to 83_228534_AB_M;
	configuration transformer_configuration:133;
}

object triplex_meter:415 {
	name 83_228534_AB_M;
	phases "BS";
	nominal_voltage 120;
	voltage_1 -60.000-103.923j;
	voltage_2 -60.000-103.923j;
	voltage_N 0;
}

object triplex_node:416 {
	name 83_228534_AB_TX;
	parent 83_228534_AB_M;
	phases BS;
	nominal_voltage 120;
	latitude 50N9'6.892";
	longitude 121W23'17.061";
	power_1 4.8288584915624+5.12146987452025j;
	voltage_1 -60.000-103.923j;
	voltage_2 -60.000-103.923j;
	voltage_N 0;
}

object transformer:417  {
	phases "BS";
	from 83_226560;
	to 83_226560_AB_M;
	configuration transformer_configuration:136;
}

object triplex_meter:418 {
	name 83_226560_AB_M;
	phases "BS";
	nominal_voltage 120;
	voltage_1 -60.000-103.923j;
	voltage_2 -60.000-103.923j;
	voltage_N 0;
}

object triplex_node:419 {
	name 83_226560_AB_TX;
	parent 83_226560_AB_M;
	phases BS;
	nominal_voltage 120;
	latitude 50N9'7.900";
	longitude 121W23'5.225";
	power_1 9.65771698312481+10.2429397490405j;
	voltage_1 -60.000-103.923j;
	voltage_2 -60.000-103.923j;
	voltage_N 0;
}

object transformer:420  {
	phases "A|B|C|N";
	from 83_229625;
	to 83_229625_A_M;
	configuration transformer_configuration:169;
}

object meter:421 {
	name 83_229625_A_M;
	phases "ABCN";
	nominal_voltage 19918.584;
	voltage_A 19918.584+0.0j;
	voltage_B -9959.292-17250.000j;
	voltage_C -9959.292+17250.000j;
}
object transformer:422  {
	phases "A|B|C|N";
	from 83_228439;
	to 83_228439_A_M;
	configuration transformer_configuration:183;
}

object meter:423 {
	name 83_228439_A_M;
	phases "ABCN";
	nominal_voltage 19918.584;
	voltage_A 19918.584+0.0j;
	voltage_B -9959.292-17250.000j;
	voltage_C -9959.292+17250.000j;
}
object transformer:424  {
	phases "BS";
	from 83_226015;
	to 83_226015_AB_M;
	configuration transformer_configuration:133;
}

object triplex_meter:425 {
	name 83_226015_AB_M;
	phases "BS";
	nominal_voltage 120;
	voltage_1 -60.000-103.923j;
	voltage_2 -60.000-103.923j;
	voltage_N 0;
}

object triplex_node:426 {
	name 83_226015_AB_TX;
	parent 83_226015_AB_M;
	phases BS;
	nominal_voltage 120;
	latitude 50N8'37.031";
	longitude 121W21'57.959";
	power_1 4.8288584915624+5.12146987452025j;
	voltage_1 -60.000-103.923j;
	voltage_2 -60.000-103.923j;
	voltage_N 0;
}

object transformer:427  {
	phases "BS";
	from 80_21806;
	to 80_21806_AB_M;
	configuration transformer_configuration:134;
}

object triplex_meter:428 {
	name 80_21806_AB_M;
	phases "BS";
	nominal_voltage 120;
	voltage_1 -60.000-103.923j;
	voltage_2 -60.000-103.923j;
	voltage_N 0;
}

object triplex_node:429 {
	name 80_21806_AB_TX;
	parent 80_21806_AB_M;
	phases BS;
	nominal_voltage 120;
	latitude 50N8'50.976";
	longitude 121W21'58.961";
	power_1 8.04809748593734+8.53578312420042j;
	voltage_1 -60.000-103.923j;
	voltage_2 -60.000-103.923j;
	voltage_N 0;
}

object transformer:430  {
	phases "BS";
	from 83_226014;
	to 83_226014_AB_M;
	configuration transformer_configuration:133;
}

object triplex_meter:431 {
	name 83_226014_AB_M;
	phases "BS";
	nominal_voltage 120;
	voltage_1 -60.000-103.923j;
	voltage_2 -60.000-103.923j;
	voltage_N 0;
}

object triplex_node:432 {
	name 83_226014_AB_TX;
	parent 83_226014_AB_M;
	phases BS;
	nominal_voltage 120;
	latitude 50N8'37.493";
	longitude 121W22'10.483";
	power_1 4.8288584915624+5.12146987452025j;
	voltage_1 -60.000-103.923j;
	voltage_2 -60.000-103.923j;
	voltage_N 0;
}

object transformer:433  {
	phases "A|B|C|N";
	from 83_227882;
	to 83_227882_A_M;
	configuration transformer_configuration:183;
}

object meter:434 {
	name 83_227882_A_M;
	phases "ABCN";
	nominal_voltage 19918.584;
	voltage_A 19918.584+0.0j;
	voltage_B -9959.292-17250.000j;
	voltage_C -9959.292+17250.000j;
}
object transformer:435  {
	phases "A|B|C|N";
	from 587_59970;
	to 587_59970_A_M;
	configuration transformer_configuration:184;
}

object meter:436 {
	name 587_59970_A_M;
	phases "ABCN";
	nominal_voltage 19918.584;
	voltage_A 19918.584+0.0j;
	voltage_B -9959.292-17250.000j;
	voltage_C -9959.292+17250.000j;
}
object transformer:437  {
	phases "A|B|C|N";
	from 83_227885;
	to 83_227885_A_M;
	configuration transformer_configuration:176;
}

object meter:438 {
	name 83_227885_A_M;
	phases "ABCN";
	nominal_voltage 19918.584;
	voltage_A 19918.584+0.0j;
	voltage_B -9959.292-17250.000j;
	voltage_C -9959.292+17250.000j;
}
object transformer:439  {
	phases "A|B|C|N";
	from 587_59854;
	to 587_59854_A_M;
	configuration transformer_configuration:176;
}

object meter:440 {
	name 587_59854_A_M;
	phases "ABCN";
	nominal_voltage 19918.584;
	voltage_A 19918.584+0.0j;
	voltage_B -9959.292-17250.000j;
	voltage_C -9959.292+17250.000j;
}
object transformer:441  {
	phases "AS";
	from 587_66003;
	to 587_66003_RA_M;
	configuration transformer_configuration:122;
}

object triplex_meter:442 {
	name 587_66003_RA_M;
	phases "AS";
	nominal_voltage 120;
	voltage_1 120;
	voltage_2 120;
	voltage_N 0;
}

object triplex_node:443 {
	name 587_66003_RA_TX;
	parent 587_66003_RA_M;
	phases AS;
	nominal_voltage 120;
	latitude 50N7'30.830";
	longitude 121W25'15.564";
	power_1 16.4422899648999+17.3350325940158j;
	voltage_1 120;
	voltage_2 120;
	voltage_N 0;
}

object transformer:444  {
	phases "BS";
	from 587_66003;
	to 587_66003_RB_M;
	configuration transformer_configuration:135;
}

object triplex_meter:445 {
	name 587_66003_RB_M;
	phases "BS";
	nominal_voltage 120;
	voltage_1 -60.000-103.923j;
	voltage_2 -60.000-103.923j;
	voltage_N 0;
}

object triplex_node:446 {
	name 587_66003_RB_TX;
	parent 587_66003_RB_M;
	phases BS;
	nominal_voltage 120;
	latitude 50N7'30.830";
	longitude 121W25'15.564";
	power_1 16.0961949718747+17.0715662484008j;
	voltage_1 -60.000-103.923j;
	voltage_2 -60.000-103.923j;
	voltage_N 0;
}

object transformer:447  {
	phases "CS";
	from 587_66003;
	to 587_66003_RC_M;
	configuration transformer_configuration:152;
}

object triplex_meter:448 {
	name 587_66003_RC_M;
	phases "CS";
	nominal_voltage 120;
	voltage_1 -60.000+103.923j;
	voltage_2 -60.000+103.923j;
	voltage_N 0;
}

object triplex_node:449 {
	name 587_66003_RC_TX;
	parent 587_66003_RC_M;
	phases CS;
	nominal_voltage 120;
	latitude 50N7'30.830";
	longitude 121W25'15.564";
	power_1 15.9534621580072+16.9150934650524j;
	voltage_1 -60.000+103.923j;
	voltage_2 -60.000+103.923j;
	voltage_N 0;
}

object transformer:450  {
	phases "AS";
	from 83_228459;
	to 83_228459_AA_M;
	configuration transformer_configuration:119;
}

object triplex_meter:451 {
	name 83_228459_AA_M;
	phases "AS";
	nominal_voltage 120;
	voltage_1 120;
	voltage_2 120;
	voltage_N 0;
}

object triplex_node:452 {
	name 83_228459_AA_TX;
	parent 83_228459_AA_M;
	phases AS;
	nominal_voltage 120;
	latitude 50N7'10.513";
	longitude 121W23'57.855";
	power_1 4.93268698946997+5.20050977820472j;
	voltage_1 120;
	voltage_2 120;
	voltage_N 0;
}

object transformer:453  {
	phases "BS";
	from 83_230308;
	to 83_230308_AB_M;
	configuration transformer_configuration:134;
}

object triplex_meter:454 {
	name 83_230308_AB_M;
	phases "BS";
	nominal_voltage 120;
	voltage_1 -60.000-103.923j;
	voltage_2 -60.000-103.923j;
	voltage_N 0;
}

object triplex_node:455 {
	name 83_230308_AB_TX;
	parent 83_230308_AB_M;
	phases BS;
	nominal_voltage 120;
	latitude 50N9'11.826";
	longitude 121W23'18.236";
	power_1 8.04809748593734+8.53578312420042j;
	voltage_1 -60.000-103.923j;
	voltage_2 -60.000-103.923j;
	voltage_N 0;
}

object transformer:456  {
	phases "BS";
	from 83_230307;
	to 83_230307_RB_M;
	configuration transformer_configuration:135;
}

object triplex_meter:457 {
	name 83_230307_RB_M;
	phases "BS";
	nominal_voltage 120;
	voltage_1 -60.000-103.923j;
	voltage_2 -60.000-103.923j;
	voltage_N 0;
}

object triplex_node:458 {
	name 83_230307_RB_TX;
	parent 83_230307_RB_M;
	phases BS;
	nominal_voltage 120;
	latitude 50N9'9.257";
	longitude 121W23'21.443";
	power_1 16.0961949718747+17.0715662484008j;
	voltage_1 -60.000-103.923j;
	voltage_2 -60.000-103.923j;
	voltage_N 0;
}

object transformer:459  {
	phases "BS";
	from 587_66139;
	to 587_66139_AB_M;
	configuration transformer_configuration:133;
}

object triplex_meter:460 {
	name 587_66139_AB_M;
	phases "BS";
	nominal_voltage 120;
	voltage_1 -60.000-103.923j;
	voltage_2 -60.000-103.923j;
	voltage_N 0;
}

object triplex_node:461 {
	name 587_66139_AB_TX;
	parent 587_66139_AB_M;
	phases BS;
	nominal_voltage 120;
	latitude 50N8'23.153";
	longitude 121W24'36.181";
	power_1 4.8288584915624+5.12146987452025j;
	voltage_1 -60.000-103.923j;
	voltage_2 -60.000-103.923j;
	voltage_N 0;
}

object transformer:462  {
	phases "A|B|C|N";
	from 83_228440;
	to 83_228440_A_M;
	configuration transformer_configuration:182;
}

object meter:463 {
	name 83_228440_A_M;
	phases "ABCN";
	nominal_voltage 19918.584;
	voltage_A 19918.584+0.0j;
	voltage_B -9959.292-17250.000j;
	voltage_C -9959.292+17250.000j;
}
object transformer:464  {
	phases "BS";
	from 83_228442;
	to 83_228442_AB_M;
	configuration transformer_configuration:133;
}

object triplex_meter:465 {
	name 83_228442_AB_M;
	phases "BS";
	nominal_voltage 120;
	voltage_1 -60.000-103.923j;
	voltage_2 -60.000-103.923j;
	voltage_N 0;
}

object triplex_node:466 {
	name 83_228442_AB_TX;
	parent 83_228442_AB_M;
	phases BS;
	nominal_voltage 120;
	latitude 50N7'30.601";
	longitude 121W24'33.813";
	power_1 4.8288584915624+5.12146987452025j;
	voltage_1 -60.000-103.923j;
	voltage_2 -60.000-103.923j;
	voltage_N 0;
}

object transformer:467  {
	phases "AS";
	from 587_59884;
	to 587_59884_AA_M;
	configuration transformer_configuration:119;
}

object triplex_meter:468 {
	name 587_59884_AA_M;
	phases "AS";
	nominal_voltage 120;
	voltage_1 120;
	voltage_2 120;
	voltage_N 0;
}

object triplex_node:469 {
	name 587_59884_AA_TX;
	parent 587_59884_AA_M;
	phases AS;
	nominal_voltage 120;
	latitude 50N6'42.444";
	longitude 121W27'53.870";
	power_1 4.93268698946997+5.20050977820472j;
	voltage_1 120;
	voltage_2 120;
	voltage_N 0;
}

object transformer:470  {
	phases "CS";
	from 587_59884;
	to 587_59884_AC_M;
	configuration transformer_configuration:149;
}

object triplex_meter:471 {
	name 587_59884_AC_M;
	phases "CS";
	nominal_voltage 120;
	voltage_1 -60.000+103.923j;
	voltage_2 -60.000+103.923j;
	voltage_N 0;
}

object triplex_node:472 {
	name 587_59884_AC_TX;
	parent 587_59884_AC_M;
	phases AS;
	nominal_voltage 120;
	latitude 50N6'42.444";
	longitude 121W27'53.870";
	power_1 4.78603864740218+5.07452803951572j;
	voltage_1 -60.000+103.923j;
	voltage_2 -60.000+103.923j;
	voltage_N 0;
}

object transformer:473  {
	phases "BS";
	from 83_227880;
	to 83_227880_AB_M;
	configuration transformer_configuration:133;
}

object triplex_meter:474 {
	name 83_227880_AB_M;
	phases "BS";
	nominal_voltage 120;
	voltage_1 -60.000-103.923j;
	voltage_2 -60.000-103.923j;
	voltage_N 0;
}

object triplex_node:475 {
	name 83_227880_AB_TX;
	parent 83_227880_AB_M;
	phases BS;
	nominal_voltage 120;
	latitude 50N6'55.986";
	longitude 121W27'50.656";
	power_1 4.8288584915624+5.12146987452025j;
	voltage_1 -60.000-103.923j;
	voltage_2 -60.000-103.923j;
	voltage_N 0;
}

object transformer:476  {
	phases "A|B|C|N";
	from 83_227888;
	to 83_227888_A_M;
	configuration transformer_configuration:175;
}

object meter:477 {
	name 83_227888_A_M;
	phases "ABCN";
	nominal_voltage 19918.584;
	voltage_A 19918.584+0.0j;
	voltage_B -9959.292-17250.000j;
	voltage_C -9959.292+17250.000j;
}
object transformer:478  {
	phases "A|B|C|N";
	from 83_227887;
	to 83_227887_A_M;
	configuration transformer_configuration:169;
}

object meter:479 {
	name 83_227887_A_M;
	phases "ABCN";
	nominal_voltage 19918.584;
	voltage_A 19918.584+0.0j;
	voltage_B -9959.292-17250.000j;
	voltage_C -9959.292+17250.000j;
}
object transformer:480  {
	phases "A|B|C|N";
	from 587_59812;
	to 587_59812_A_M;
	configuration transformer_configuration:169;
}

object meter:481 {
	name 587_59812_A_M;
	phases "ABCN";
	nominal_voltage 19918.584;
	voltage_A 19918.584+0.0j;
	voltage_B -9959.292-17250.000j;
	voltage_C -9959.292+17250.000j;
}
object transformer:482  {
	phases "A|B|C|N";
	from 587_59822;
	to 587_59822_A_M;
	configuration transformer_configuration:182;
}

object meter:483 {
	name 587_59822_A_M;
	phases "ABCN";
	nominal_voltage 19918.584;
	voltage_A 19918.584+0.0j;
	voltage_B -9959.292-17250.000j;
	voltage_C -9959.292+17250.000j;
}
object transformer:484  {
	phases "A|B|C|N";
	from 83_227872;
	to 83_227872_A_M;
	configuration transformer_configuration:185;
}

object meter:485 {
	name 83_227872_A_M;
	phases "ABCN";
	nominal_voltage 19918.584;
	voltage_A 19918.584+0.0j;
	voltage_B -9959.292-17250.000j;
	voltage_C -9959.292+17250.000j;
}
object transformer:486  {
	phases "A|B|C|N";
	from 83_227870;
	to 83_227870_A_M;
	configuration transformer_configuration:186;
}

object meter:487 {
	name 83_227870_A_M;
	phases "ABCN";
	nominal_voltage 19918.584;
	voltage_A 19918.584+0.0j;
	voltage_B -9959.292-17250.000j;
	voltage_C -9959.292+17250.000j;
}
object transformer:488  {
	phases "AS";
	from 83_228460;
	to 83_228460_AA_M;
	configuration transformer_configuration:119;
}

object triplex_meter:489 {
	name 83_228460_AA_M;
	phases "AS";
	nominal_voltage 120;
	voltage_1 120;
	voltage_2 120;
	voltage_N 0;
}

object triplex_node:490 {
	name 83_228460_AA_TX;
	parent 83_228460_AA_M;
	phases AS;
	nominal_voltage 120;
	latitude 50N7'10.144";
	longitude 121W23'51.319";
	power_1 4.93268698946997+5.20050977820472j;
	voltage_1 120;
	voltage_2 120;
	voltage_N 0;
}

object transformer:491  {
	phases "AS";
	from 83_227936;
	to 83_227936_RA_M;
	configuration transformer_configuration:119;
}

object triplex_meter:492 {
	name 83_227936_RA_M;
	phases "AS";
	nominal_voltage 120;
	voltage_1 120;
	voltage_2 120;
	voltage_N 0;
}

object triplex_node:493 {
	name 83_227936_RA_TX;
	parent 83_227936_RA_M;
	phases AS;
	nominal_voltage 120;
	latitude 50N7'31.472";
	longitude 121W25'15.942";
	power_1 4.93268698946997+5.20050977820472j;
	voltage_1 120;
	voltage_2 120;
	voltage_N 0;
}

object transformer:494  {
	phases "BS";
	from 83_227936;
	to 83_227936_RB_M;
	configuration transformer_configuration:133;
}

object triplex_meter:495 {
	name 83_227936_RB_M;
	phases "BS";
	nominal_voltage 120;
	voltage_1 -60.000-103.923j;
	voltage_2 -60.000-103.923j;
	voltage_N 0;
}

object triplex_node:496 {
	name 83_227936_RB_TX;
	parent 83_227936_RB_M;
	phases BS;
	nominal_voltage 120;
	latitude 50N7'31.472";
	longitude 121W25'15.942";
	power_1 4.8288584915624+5.12146987452025j;
	voltage_1 -60.000-103.923j;
	voltage_2 -60.000-103.923j;
	voltage_N 0;
}

object transformer:497  {
	phases "CS";
	from 83_227936;
	to 83_227936_RC_M;
	configuration transformer_configuration:149;
}

object triplex_meter:498 {
	name 83_227936_RC_M;
	phases "CS";
	nominal_voltage 120;
	voltage_1 -60.000+103.923j;
	voltage_2 -60.000+103.923j;
	voltage_N 0;
}

object triplex_node:499 {
	name 83_227936_RC_TX;
	parent 83_227936_RC_M;
	phases CS;
	nominal_voltage 120;
	latitude 50N7'31.472";
	longitude 121W25'15.942";
	power_1 4.78603864740218+5.07452803951572j;
	voltage_1 -60.000+103.923j;
	voltage_2 -60.000+103.923j;
	voltage_N 0;
}

object transformer:500  {
	phases "AS";
	from 83_227934;
	to 83_227934_RA_M;
	configuration transformer_configuration:118;
}

object triplex_meter:501 {
	name 83_227934_RA_M;
	phases "AS";
	nominal_voltage 120;
	voltage_1 120;
	voltage_2 120;
	voltage_N 0;
}

object triplex_node:502 {
	name 83_227934_RA_TX;
	parent 83_227934_RA_M;
	phases AS;
	nominal_voltage 120;
	latitude 50N7'46.884";
	longitude 121W25'9.724";
	power_1 8.22114498244995+8.66751629700788j;
	voltage_1 120;
	voltage_2 120;
	voltage_N 0;
}

object transformer:503  {
	phases "BS";
	from 83_227934;
	to 83_227934_RB_M;
	configuration transformer_configuration:135;
}

object triplex_meter:504 {
	name 83_227934_RB_M;
	phases "BS";
	nominal_voltage 120;
	voltage_1 -60.000-103.923j;
	voltage_2 -60.000-103.923j;
	voltage_N 0;
}

object triplex_node:505 {
	name 83_227934_RB_TX;
	parent 83_227934_RB_M;
	phases BS;
	nominal_voltage 120;
	latitude 50N7'46.884";
	longitude 121W25'9.724";
	power_1 16.0961949718747+17.0715662484008j;
	voltage_1 -60.000-103.923j;
	voltage_2 -60.000-103.923j;
	voltage_N 0;
}

object transformer:506  {
	phases "CS";
	from 83_227934;
	to 83_227934_RC_M;
	configuration transformer_configuration:148;
}

object triplex_meter:507 {
	name 83_227934_RC_M;
	phases "CS";
	nominal_voltage 120;
	voltage_1 -60.000+103.923j;
	voltage_2 -60.000+103.923j;
	voltage_N 0;
}

object triplex_node:508 {
	name 83_227934_RC_TX;
	parent 83_227934_RC_M;
	phases CS;
	nominal_voltage 120;
	latitude 50N7'46.884";
	longitude 121W25'9.724";
	power_1 7.97673107900362+8.4575467325262j;
	voltage_1 -60.000+103.923j;
	voltage_2 -60.000+103.923j;
	voltage_N 0;
}

object transformer:509  {
	phases "A|B|C|N";
	from 83_227893;
	to 83_227893_A_M;
	configuration transformer_configuration:185;
}

object meter:510 {
	name 83_227893_A_M;
	phases "ABCN";
	nominal_voltage 19918.584;
	voltage_A 19918.584+0.0j;
	voltage_B -9959.292-17250.000j;
	voltage_C -9959.292+17250.000j;
}
object transformer:511  {
	phases "A|B|C|N";
	from 587_59983;
	to 587_59983_A_M;
	configuration transformer_configuration:175;
}

object meter:512 {
	name 587_59983_A_M;
	phases "ABCN";
	nominal_voltage 19918.584;
	voltage_A 19918.584+0.0j;
	voltage_B -9959.292-17250.000j;
	voltage_C -9959.292+17250.000j;
}
object transformer:513  {
	phases "A|B|C|N";
	from 587_59984;
	to 587_59984_A_M;
	configuration transformer_configuration:175;
}

object meter:514 {
	name 587_59984_A_M;
	phases "ABCN";
	nominal_voltage 19918.584;
	voltage_A 19918.584+0.0j;
	voltage_B -9959.292-17250.000j;
	voltage_C -9959.292+17250.000j;
}
object transformer:515  {
	phases "AS";
	from 587_59998;
	to 587_59998_AA_M;
	configuration transformer_configuration:119;
}

object triplex_meter:516 {
	name 587_59998_AA_M;
	phases "AS";
	nominal_voltage 120;
	voltage_1 120;
	voltage_2 120;
	voltage_N 0;
}

object triplex_node:517 {
	name 587_59998_AA_TX;
	parent 587_59998_AA_M;
	phases AS;
	nominal_voltage 120;
	latitude 50N7'39.471";
	longitude 121W28'31.444";
	power_1 4.93268698946997+5.20050977820472j;
	voltage_1 120;
	voltage_2 120;
	voltage_N 0;
}

object transformer:518  {
	phases "CS";
	from 587_59998;
	to 587_59998_AC_M;
	configuration transformer_configuration:149;
}

object triplex_meter:519 {
	name 587_59998_AC_M;
	phases "CS";
	nominal_voltage 120;
	voltage_1 -60.000+103.923j;
	voltage_2 -60.000+103.923j;
	voltage_N 0;
}

object triplex_node:520 {
	name 587_59998_AC_TX;
	parent 587_59998_AC_M;
	phases AS;
	nominal_voltage 120;
	latitude 50N7'39.471";
	longitude 121W28'31.444";
	power_1 0+0j;
	voltage_1 -60.000+103.923j;
	voltage_2 -60.000+103.923j;
	voltage_N 0;
}

object transformer:521  {
	phases "A|B|C|N";
	from 83_228455;
	to 83_228455_A_M;
	configuration transformer_configuration:176;
}

object meter:522 {
	name 83_228455_A_M;
	phases "ABCN";
	nominal_voltage 19918.584;
	voltage_A 19918.584+0.0j;
	voltage_B -9959.292-17250.000j;
	voltage_C -9959.292+17250.000j;
}
object transformer:523  {
	phases "A|B|C|N";
	from 587_59868;
	to 587_59868_A_M;
	configuration transformer_configuration:169;
}

object meter:524 {
	name 587_59868_A_M;
	phases "ABCN";
	nominal_voltage 19918.584;
	voltage_A 19918.584+0.0j;
	voltage_B -9959.292-17250.000j;
	voltage_C -9959.292+17250.000j;
}
object transformer:525  {
	phases "A|B|C|N";
	from 83_227900;
	to 83_227900_A_M;
	configuration transformer_configuration:175;
}

object meter:526 {
	name 83_227900_A_M;
	phases "ABCN";
	nominal_voltage 19918.584;
	voltage_A 19918.584+0.0j;
	voltage_B -9959.292-17250.000j;
	voltage_C -9959.292+17250.000j;
}
object transformer:527  {
	phases "BS";
	from 83_227898;
	to 83_227898_AB_M;
	configuration transformer_configuration:134;
}

object triplex_meter:528 {
	name 83_227898_AB_M;
	phases "BS";
	nominal_voltage 120;
	voltage_1 -60.000-103.923j;
	voltage_2 -60.000-103.923j;
	voltage_N 0;
}

object triplex_node:529 {
	name 83_227898_AB_TX;
	parent 83_227898_AB_M;
	phases BS;
	nominal_voltage 120;
	latitude 50N7'43.068";
	longitude 121W28'38.941";
	power_1 8.04809748593734+8.53578312420042j;
	voltage_1 -60.000-103.923j;
	voltage_2 -60.000-103.923j;
	voltage_N 0;
}

object transformer:530  {
	phases "A|B|C|N";
	from 587_60060;
	to 587_60060_A_M;
	configuration transformer_configuration:175;
}

object meter:531 {
	name 587_60060_A_M;
	phases "ABCN";
	nominal_voltage 19918.584;
	voltage_A 19918.584+0.0j;
	voltage_B -9959.292-17250.000j;
	voltage_C -9959.292+17250.000j;
}
object transformer:532  {
	phases "A|B|C|N";
	from 83_228074;
	to 83_228074_A_M;
	configuration transformer_configuration:175;
}

object meter:533 {
	name 83_228074_A_M;
	phases "ABCN";
	nominal_voltage 19918.584;
	voltage_A 19918.584+0.0j;
	voltage_B -9959.292-17250.000j;
	voltage_C -9959.292+17250.000j;
}
object transformer:534  {
	phases "AS";
	from 83_228436;
	to 83_228436_AA_M;
	configuration transformer_configuration:118;
}

object triplex_meter:535 {
	name 83_228436_AA_M;
	phases "AS";
	nominal_voltage 120;
	voltage_1 120;
	voltage_2 120;
	voltage_N 0;
}

object triplex_node:536 {
	name 83_228436_AA_TX;
	parent 83_228436_AA_M;
	phases AS;
	nominal_voltage 120;
	latitude 50N8'27.795";
	longitude 121W24'37.927";
	power_1 8.22114498244995+8.66751629700788j;
	voltage_1 120;
	voltage_2 120;
	voltage_N 0;
}

object transformer:537  {
	phases "CS";
	from 83_228436;
	to 83_228436_AC_M;
	configuration transformer_configuration:148;
}

object triplex_meter:538 {
	name 83_228436_AC_M;
	phases "CS";
	nominal_voltage 120;
	voltage_1 -60.000+103.923j;
	voltage_2 -60.000+103.923j;
	voltage_N 0;
}

object triplex_node:539 {
	name 83_228436_AC_TX;
	parent 83_228436_AC_M;
	phases AS;
	nominal_voltage 120;
	latitude 50N8'27.795";
	longitude 121W24'37.927";
	power_1 7.97673107900362+8.4575467325262j;
	voltage_1 -60.000+103.923j;
	voltage_2 -60.000+103.923j;
	voltage_N 0;
}

object transformer:540  {
	phases "A|B|C|N";
	from 83_228434;
	to 83_228434_A_M;
	configuration transformer_configuration:175;
}

object meter:541 {
	name 83_228434_A_M;
	phases "ABCN";
	nominal_voltage 19918.584;
	voltage_A 19918.584+0.0j;
	voltage_B -9959.292-17250.000j;
	voltage_C -9959.292+17250.000j;
}
object transformer:542  {
	phases "A|B|C|N";
	from 76_147270;
	to 76_147270_A_M;
	configuration transformer_configuration:169;
}

object meter:543 {
	name 76_147270_A_M;
	phases "ABCN";
	nominal_voltage 19918.584;
	voltage_A 19918.584+0.0j;
	voltage_B -9959.292-17250.000j;
	voltage_C -9959.292+17250.000j;
}
object transformer:544  {
	phases "AS";
	from 587_60087;
	to 587_60087_AA_M;
	configuration transformer_configuration:119;
}

object triplex_meter:545 {
	name 587_60087_AA_M;
	phases "AS";
	nominal_voltage 120;
	voltage_1 120;
	voltage_2 120;
	voltage_N 0;
}

object triplex_node:546 {
	name 587_60087_AA_TX;
	parent 587_60087_AA_M;
	phases AS;
	nominal_voltage 120;
	latitude 50N8'27.100";
	longitude 121W27'51.169";
	power_1 4.93268698946997+5.20050977820472j;
	voltage_1 120;
	voltage_2 120;
	voltage_N 0;
}

object transformer:547  {
	phases "CS";
	from 587_60087;
	to 587_60087_AC_M;
	configuration transformer_configuration:149;
}

object triplex_meter:548 {
	name 587_60087_AC_M;
	phases "CS";
	nominal_voltage 120;
	voltage_1 -60.000+103.923j;
	voltage_2 -60.000+103.923j;
	voltage_N 0;
}

object triplex_node:549 {
	name 587_60087_AC_TX;
	parent 587_60087_AC_M;
	phases AS;
	nominal_voltage 120;
	latitude 50N8'27.100";
	longitude 121W27'51.169";
	power_1 0+0j;
	voltage_1 -60.000+103.923j;
	voltage_2 -60.000+103.923j;
	voltage_N 0;
}

object transformer:550  {
	phases "AS";
	from 587_60110;
	to 587_60110_AA_M;
...